750
Lattice="15.3897 0 0 0 15.3897 0 0 0 15.3897" Properties=species:S:1:pos:R:3 pbc="T T T"
O          3.24936         8.01688         1.50404
C          4.48274         7.70926        0.884422
C          4.74176         6.21109          1.1119
O          3.76572         5.45016        0.463017
C          6.18101         5.79842        0.542616
H           3.0521         9.00909         1.46848
H          4.44911          8.0893        -0.14907
H          5.24505         8.28214         1.47655
H          4.73376          5.9916         2.18721
H          2.99398         6.10391        0.251332
H          6.32453         4.69894        0.744722
H          6.19609         6.08676       -0.531366
H          6.89687         6.42583         1.01092
He         3.86605         7.86307         1.19423
He         3.15073         8.51299         1.48626
He         4.61225         6.96018        0.998162
He         4.46592         7.89928        0.367676
He         4.86389          7.9957         1.18049
He         4.25374         5.83062        0.787459
He         5.46138         6.00476        0.827259
He         4.73776         6.10135         1.64956
He         3.37985         5.77703        0.357174
He         6.25277         5.24868        0.643669
He         6.18855         5.94259      0.00562519
He         6.53894         6.11213        0.776771
O          2.29909         9.96917         9.29444
C          3.05741         9.99764         8.06764
C          4.04501         11.1596         8.03273
O          3.38652         12.3515         7.88801
C          4.81089         11.3075         9.34296
H           1.3424         10.0374         9.09428
H          3.53031         9.04495         7.85304
H          2.28894         10.1275         7.24295
H          4.84336         11.0474         7.27618
H          2.63934         12.4275         8.55317
H          5.25717         10.3523         9.61796
H          5.56107         12.0443         9.23986
H          4.21045         11.5559         10.1904
He         2.67825          9.9834         8.68104
He         1.82075         10.0033         9.19436
He         3.55121         10.5786         8.05019
He         3.29386         9.52129         7.96034
He         2.67318         10.0626          7.6553
He         3.71576         11.7555         7.96037
He         4.42795         11.2335         8.68785
He         4.44418         11.1035         7.65446
He         3.01293         12.3895         8.22059
He         5.03403         10.8299         9.48046
He         5.18598         11.6759         9.29141
He         4.51067         11.4317         9.76666
O           2.6552         16.5942         7.08059
C          2.11549         15.2568          6.8431
C          2.76953         14.6053         5.58235
O          4.11919         14.2678         5.87894
C          1.94418         13.4423         5.04847
H          2.35132         16.8984         7.94573
H           2.1508         14.6577         7.78134
H          1.02371         15.3603         6.69911
H          2.82075         15.3213          4.8328
H          4.11169         13.7736         6.71126
H          1.90046         12.5215         5.65464
H         0.954899         13.7339         4.81823
H          2.40221         13.1461         4.07458
He         2.38534         15.9255         6.96185
He         2.50326         16.7463         7.51316
He         2.44251          14.931         6.21273
He         2.13314         14.9573         7.31222
He          1.5696         15.3086         6.77111
He         3.44436         14.4365         5.73065
He         2.35685         14.0238         5.31541
He         2.79514         14.9633         5.20757
He         4.11544         14.0207          6.2951
He         1.92232         12.9819         5.35156
He         1.44954         13.5881         4.93335
He         2.17319         13.2942         4.56152
O          10.5715         12.8709         2.73035
C           10.643         13.7218         1.59072
C            9.812         13.1238        0.395008
O           8.4337         13.3254        0.671942
C           10.133         13.7491       -0.968435
H          9.66958         12.9464         3.06207
H          10.2529         14.7267         1.87289
H          11.6543         13.7837         1.24656
H          10.1629         12.0996        0.313021
H          8.07249         12.9084       -0.150818
H          9.61067         13.2559        -1.81898
H          9.79424         14.7667       -0.909809
H          11.2163         13.7153        -1.09456
He         10.6072         13.2963         2.16053
He         10.1205         12.9086         2.89621
He         10.2275         13.4228        0.992864
He         10.4479         14.2243          1.7318
He         11.1486         13.7528         1.41864
He         9.12285         13.2246        0.533475
He         9.97251         13.4365       -0.286713
He         9.98747         12.6117        0.354014
He         8.25309         13.1169        0.260562
He         9.87184         13.5025        -1.39371
He         9.96363         14.2579       -0.939122
He         10.6747         13.7322         -1.0315
O          14.8077         10.3909         8.62264
C          14.9962         10.0191         7.22768
C          13.6327         10.1154         6.59705
O          13.1096         11.4314         6.93778
C          13.7837         9.95402         5.11852
H          14.4363         11.2519         8.52544
H          15.7401         10.7133         6.84813
H          15.4502         9.02822         7.23653
H          12.9559         9.36933         6.95847
H          12.4361         11.3774         7.65203
H          14.3192         9.01431         4.81795
H          12.8675         9.90877         4.55877
H          14.3428         10.8422         4.66106
He          14.902          10.205         7.92516
He          14.622         10.8214         8.57404
He         14.3145         10.0672         6.91236
He         15.3682         10.3662          7.0379
He         15.2232         9.52365          7.2321
He         13.3712         10.7734         6.76741
He         13.7082         10.0347         5.85779
He         13.2943         9.74236         6.77776
He         12.7729         11.4044          7.2949
He         14.0515         9.48417         4.96824
He         13.3256          9.9314         4.83864
He         14.0633         10.3981         4.88979
O          7.81296       -0.592072         11.4397
C          6.47763       -0.509671          11.872
C           5.7276        0.453147          10.956
O          6.44454         1.69815         10.9858
C          5.38608      -0.0788784         9.56362
H          7.80384        0.214061         10.9504
H          6.05546        -1.50774         11.7112
H          6.48151        -0.10893         12.8951
H           4.7651        0.598263         11.3851
H          6.47211         2.09383         11.8842
H          4.78301        0.737673         8.97213
H          6.33198       -0.499755         9.09426
H           4.7133       -0.887164         9.60528
He          7.1453       -0.550871         11.6558
He          7.8084       -0.189006          11.195
He         6.10262      -0.0282621          11.414
He         6.26655         -1.0087         11.7916
He         6.47957         -0.3093         12.3835
He         6.08607         1.07565         10.9709
He         5.55684        0.187134         10.2598
He         5.24635        0.525705         11.1705
He         6.45832         1.89599          11.435
He         5.08455        0.329397         9.26788
He         5.85903       -0.289317         9.32894
He         5.04969       -0.483021         9.58445
O          10.9845         10.4598         8.41264
C          9.78148         11.1632          8.5971
C          9.53292         12.0728         7.38317
O          9.26101           11.27         6.21762
C          8.22677         12.9001         7.55507
H          10.7983         9.50735         8.66936
H          8.92623         10.5251         8.68985
H          9.77571         11.7607         9.54996
H          10.4234         12.6515         7.21367
H          9.84167         10.4828         6.40433
H          8.25626         13.5061          8.5128
H          8.24683         13.6056         6.78941
H          7.32831         12.3044         7.45857
He          10.383         10.8115         8.50487
He         10.8914         9.98355           8.541
He          9.6572          11.618         7.99013
He         9.35386         10.8441         8.64347
He         9.77859         11.4619         9.07353
He         9.39696         11.6714          6.8004
He         8.87984         12.4864         7.46912
He         9.97818         12.3621         7.29842
He         9.55134         10.8764         6.31098
He         8.24151         13.2031         8.03394
He          8.2368         13.2528         7.17224
He         7.77754         12.6022         7.50682
O          1.98106         6.71726          6.8931
C          2.07474         6.39403         8.25161
C          2.70332         4.98556         8.35542
O          1.92041         4.09319         7.53911
C          4.11943          4.9881         7.88873
H           1.7841         5.82595         6.50148
H          2.65717         7.14171         8.80073
H          1.05602         6.37971          8.6674
H          2.77511         4.60912         9.39467
H          2.44118         3.26197         7.41508
H          4.71167         5.71537          8.4207
H           4.6433         4.11343         8.21324
H          4.25301         5.10719          6.8194
He          2.0279         6.55565         7.57235
He         1.88258         6.27161         6.69729
He         2.38903          5.6898         8.30351
He         2.36595         6.76787         8.52617
He         1.56538         6.38687         8.45951
He         2.31186         4.53938         7.94727
He         3.41138         4.98683         8.12207
He         2.73921         4.79734         8.87504
He          2.1808         3.67758          7.4771
He         4.41555         5.35173         8.15472
He         4.38137         4.55076         8.05098
He         4.18622         5.04765         7.35406
O          11.8625         3.62086         12.8473
C          12.1589         4.76581         13.6719
C          10.9257         5.70521         13.6674
O           10.509         5.81945         12.2519
C          9.74597         5.23029         14.5316
H          11.2406         3.96364         12.1584
H          12.4668         4.49332         14.7062
H          13.0543         5.27511         13.2963
H          11.4146         6.60101          14.099
H          10.8373         6.72501         11.9874
H          8.97304         6.01584          14.355
H          9.29468         4.35708         14.0799
H          9.93835         5.08994         15.6071
He         12.0107         4.19334         13.2596
He         11.5515         3.79225         12.5028
He         11.5423         5.23551         13.6696
He         12.3129         4.62957          14.189
He         12.6066         5.02046         13.4841
He         10.7173         5.76233         12.9596
He         10.3358         5.46775         14.0995
He         11.1701         6.15311         13.8832
He         10.6731         6.27223         12.1197
He         9.35951         5.62306         14.4433
He         9.52033         4.79368         14.3058
He         9.84216         5.16011         15.0693
O          8.02976         12.5723         3.88464
C          6.89808         13.5047         4.17756
C           5.9521         13.8349         3.03627
O          6.47386         14.7299         2.05737
C          5.32376          12.608         2.30017
H          8.31827           12.28         4.76926
H          6.31206         13.1026         5.03171
H          7.29499         14.4676         4.57152
H          5.05336          14.252         3.53064
H          7.23213         14.2368         1.62261
H          6.03582         12.1187         1.66843
H          4.86676         11.8927         3.05309
H          4.55833         13.0131         1.64976
He         7.46392         13.0385          4.0311
He         8.17401         12.4262         4.32695
He         6.42509         13.6698         3.60691
He         6.60507         13.3036         4.60463
He         7.09654         13.9861         4.37454
He         6.21298         14.2824         2.54682
He         5.63793         13.2215         2.66822
He         5.50273         14.0435         3.28345
He           6.853         14.4834         1.83999
He         5.67979         12.3634          1.9843
He         5.09526         12.2504         2.67663
He         4.94105         12.8105         1.97496
O          14.5559       0.0948728         12.6399
C          14.3427       0.0457037         14.0329
C          13.3518         1.16723         14.4858
O          12.0598         1.10273         13.8195
C          13.1473         1.13835         15.9482
H           14.101       -0.713747         12.1835
H          13.8601       -0.931221         14.2651
H          15.3036       0.0730821         14.5703
H          13.7526         2.18721         14.2585
H          11.9189         2.01437         13.5009
H          12.8044        0.152734         16.1389
H          14.1309         1.25639          16.422
H          12.4333          1.8567         16.2961
He         14.4493       0.0702883         13.3364
He         14.3284       -0.309437         12.4117
He         13.8473        0.606469         14.2593
He         14.1014       -0.442759          14.149
He         14.8232       0.0593929         14.3016
He         12.7058         1.13498         14.1527
He         13.2496         1.15279          15.217
He         13.5522         1.67722         14.3721
He         11.9893         1.55855         13.6602
He         12.9759        0.645541         16.0436
He         13.6391         1.19737         16.1851
He         12.7903         1.49752         16.1221
O          12.2604         9.23669        0.239501
C          11.4577         9.42377         1.40511
C          10.5576         8.14911         1.62377
O          11.4567         7.06305         1.85607
C          9.62048         8.49874         2.83009
H           12.653         8.32587        0.242492
H           12.155         9.50692         2.24479
H          10.9523         10.3793         1.36519
H          9.96834          7.9182        0.710573
H          11.4479         6.78433         2.80142
H          9.06703         9.37328         2.56264
H          8.99682         7.66671         3.03446
H          10.1238         8.69662         3.73123
He          11.859         9.33023        0.822305
He         12.4567         8.78128        0.240997
He         11.0076         8.78644         1.51444
He         11.8063         9.46535         1.82495
He          11.205         9.90152         1.38515
He         11.0072         7.60608         1.73992
He          10.089         8.32393         2.22693
He          10.263         8.03365         1.16717
He         11.4523         6.92369         2.32874
He         9.34376         8.93601         2.69637
He         9.30865         8.08272         2.93227
He         9.87214         8.59768         3.28066
O          7.67018          2.1409        -1.76055
C          8.38399          1.6046       -0.688473
C          8.01834         2.39034        0.607394
O          6.69938           2.032         1.04048
C           9.0068         1.87455          1.6524
H          6.80245         2.40496        -1.40098
H          8.07595        0.560368       -0.549004
H          9.48931         1.59632       -0.742629
H          8.16007         3.51135        0.650313
H          6.79207         1.20468          1.5116
H          10.0263         2.03295         1.27889
H           8.9304         2.56151         2.54121
H           8.7496        0.782066         1.90177
He         8.02709         1.87275        -1.22451
He         7.23631         2.27293        -1.58076
He         8.20117         1.99747      -0.0405395
He         8.22997         1.08249       -0.618739
He         8.93665         1.60046       -0.715551
He         7.35886         2.21117        0.823936
He         8.51257         2.13244          1.1299
He         8.08921         2.95085        0.628853
He         6.74572         1.61834         1.27604
He         9.51654         1.95375         1.46564
He          8.9686         2.21803         2.09681
He          8.8782         1.32831         1.77708
O          4.63465         2.14343        -0.70821
C          3.77096         1.10417       -0.252452
C          3.23107         1.46789         1.14998
O          2.63072         2.79923         1.09393
C          2.38377        0.392841         1.68413
H          5.16045         2.33111       0.0316024
H          2.91428        0.849961       -0.879035
H          4.38975        0.199114       -0.212357
H          4.16048          1.5007         1.74975
H          3.15518         3.42232        0.553746
H           2.0594        0.612252         2.67575
H          1.51473        0.288245         1.02976
H          2.89073       -0.527656         1.67604
He         4.20281          1.6238       -0.480331
He         4.89755         2.23727       -0.338304
He         3.50101         1.28603        0.448762
He         3.34262        0.977064       -0.565743
He         4.08035        0.651641       -0.232404
He         2.93089         2.13356         1.12195
He         2.80742        0.930367         1.41705
He         3.69577          1.4843         1.44986
He         2.89295         3.11077        0.823836
He         2.22158        0.502547         2.17994
He         1.94925        0.340543         1.35695
He         2.63725      -0.0674074         1.68008
O          6.14467        0.626453          6.1078
C          6.25774         1.48234         4.99134
C          5.87205         2.98438         5.34206
O          6.86731          3.4478         6.23579
C          5.90727         3.84928         4.09934
H          5.37052       0.0601486         5.97931
H          7.30017         1.40932          4.6688
H          5.55537         1.17553         4.16518
H          4.83261         2.97884         5.78103
H          6.83617         2.90634         7.03452
H          5.65131         4.83341         4.41144
H          6.93551         3.87574         3.56879
H          5.19546         3.44165         3.38715
He          6.2012          1.0544         5.54957
He         5.75759        0.343301         6.04356
He          6.0649         2.23336          5.1667
He         6.77895         1.44583         4.83007
He         5.90655         1.32894         4.57826
He         6.36968         3.21609         5.78892
He         5.88966         3.41683          4.7207
He         5.35233         2.98161         5.56154
He         6.85174         3.17707         6.63516
He         5.77929         4.34134         4.25539
He         6.42139         3.86251         3.83407
He         5.55137         3.64546         3.74325
O          11.7705         8.10132         10.7063
C          12.4621         9.19591         11.2065
C          11.7645         9.67425         12.4925
O          12.3725         10.8331         13.1223
C          10.2832         9.97778         12.2523
H          12.2916          7.7286         9.95201
H          13.4853         8.96251         11.4814
H          12.4761         10.1407          10.569
H          11.8708         8.85141          13.217
H          12.2456         10.6483         14.1142
H          9.68831         9.00132         12.2428
H           9.8675         10.6222         13.0115
H          10.0897         10.4651         11.3126
He         12.1163         8.64862         10.9564
He          12.031         7.91496         10.3292
He         12.1133         9.43508         11.8495
He         12.9737         9.07921         11.3439
He         12.4691         9.66829         10.8877
He         12.0685         10.2537         12.8074
He         11.0239         9.82601         12.3724
He         11.8176         9.26283         12.8547
He         12.3091         10.7407         13.6182
He         9.98574         9.48955         12.2475
He         10.0753            10.3         12.6319
He         10.1865         10.2215         11.7824
O          10.9845         8.08313          7.1884
C          9.59388         7.99555         6.86781
C          8.82324          7.1022         7.82604
O           8.8785         7.67522         9.14046
C           7.3621         7.10327         7.41711
H           11.225         7.15336         7.42094
H          9.13543         8.99058         7.01682
H           9.4383         7.65776         5.78228
H          9.28711         6.10561         7.74732
H          9.83435         7.58756         9.38937
H          6.85584         6.34264         7.95116
H           6.9279         8.05284          7.8335
H          7.16657         6.98485         6.34112
He         10.2892         8.03934         7.02811
He         11.1047         7.61825         7.30467
He         9.20856         7.54888         7.34693
He         9.36466         8.49306         6.94232
He         9.51609         7.82665         6.32504
He         8.85087         7.38871         8.48325
He         8.09267         7.10273         7.62158
He         9.05517         6.60391         7.78668
He         9.35643         7.63139         9.26492
He         7.10897         6.72295         7.68413
He           7.145         7.57806          7.6253
He         7.26433         7.04406         6.87912
O          1.79526         1.96645         9.84409
C          1.73244         2.38829         11.2378
C         0.541207         3.42085         11.6561
O        -0.737153         2.82783         11.4996
C         0.778105         3.70931         13.1632
H         0.853227         1.71429         9.72398
H          1.58743         1.43029         11.8158
H          2.69766         2.75723         11.6662
H         0.627808         4.36074         11.1035
H        -0.713857           2.065         12.1421
H          1.77057            4.14         13.3109
H        0.0745371         4.30376         13.6443
H         0.666668         2.80254         13.7955
He         1.76385         2.17737         10.5409
He         1.32424         1.84037         9.78403
He         1.13682         2.90457          11.447
He         1.65993         1.90929         11.5268
He         2.21505         2.57276          11.452
He      -0.0979732         3.12434         11.5779
He        0.659656         3.56508         12.4097
He        0.584507          3.8908         11.3798
He       -0.725505         2.44641         11.8209
He         1.27434         3.92465          13.237
He        0.426321         4.00653         13.4038
He        0.722387         3.25592         13.4794
O         0.544109         7.41778         2.55069
C         -0.23942         6.25553         2.98971
C         0.609056         4.88502          2.7996
O            0.663         4.56204         1.46146
C          2.00198         4.96461         3.45363
H          1.49709         7.21523         2.60993
H         -0.51605         6.44242         4.08499
H         -1.14519         6.22575         2.47062
H        0.0363985         4.07758         3.27733
H          1.43411         3.90636          1.4088
H          2.61855         5.81808         3.17977
H          1.75406         5.11897          4.5351
H          2.38851         3.97112         3.29021
He        0.152344         6.83665          2.7702
He          1.0206          7.3165         2.58031
He        0.184818         5.57027         2.89466
He       -0.377735         6.34897         3.53735
He       -0.692307         6.24064         2.73017
He        0.636028         4.72353         2.13053
He         1.30552         4.92482         3.12662
He        0.322727          4.4813         3.03846
He         1.04855          4.2342         1.43513
He         2.31026         5.39135          3.3167
He         1.87802         5.04179         3.99436
He         2.19524         4.46787         3.37192
O          9.16235         4.92841          5.1657
C          10.1067         3.90536         4.94262
C          11.1425         4.52496         3.98873
O          11.5695         5.70018         4.63558
C           12.328          3.6133         3.68889
H           8.3239         4.61371         5.53937
H          10.6221         3.53126         5.75566
H          9.58556         3.01237         4.51734
H          10.7603         4.82248         2.96496
H          10.7141         5.92894         5.05203
H          12.8526         3.22993         4.56632
H          12.0552         2.73564         3.07243
H          13.0073         4.25517         3.07695
He         9.63451         4.41689         5.05416
He         8.74312         4.77106         5.35254
He         10.6246         4.21516         4.46568
He         10.3644         3.71831         5.34914
He         9.84612         3.45887         4.72998
He          11.356         5.11257         4.31215
He         11.7352         4.06913         3.83881
He         10.9514         4.67372         3.47684
He         11.1418         5.81456         4.84381
He         12.5903         3.42162         4.12761
He         12.1916         3.17447         3.38066
He         12.6677         3.93423         3.38292
O          2.30737         10.5617          1.7548
C          1.65508          11.406        0.758208
C         0.169191         11.5553         1.18789
O         0.204793         12.1408         2.49761
C         -0.63563         12.3118        0.215428
H          1.87672          10.729         2.63525
H          2.09436         12.3589        0.759914
H          1.65817         10.9251       -0.276033
H        -0.195483         10.5445         1.36259
H         -0.67355         12.1635         2.93216
H        -0.210621         13.2873       0.0141983
H        -0.712951         11.8505       -0.751495
H         -1.65985         12.4494        0.629133
He         1.98122         10.9839         1.25651
He         2.09204         10.6454         2.19503
He        0.912135         11.4807         0.97305
He         1.87472         11.8825        0.759061
He         1.65663         11.1656        0.241088
He        0.186992         11.8481         1.84275
He       -0.233219         11.9335         0.70166
He      -0.0131459         11.0499         1.27524
He       -0.234379         12.1521         2.71489
He       -0.423126         12.7995        0.114813
He       -0.674291         12.0811       -0.268034
He        -1.14774         12.3806         0.42228
O          12.6643          3.8097         9.89961
C          13.6303          4.5169         9.07967
C          12.9126         5.25009         7.89631
O          11.5608         5.65899         8.28249
C          13.7898         6.29492         7.17337
H          13.1237         3.50549         10.7234
H          14.2196         5.22381         9.84231
H          14.3618         3.75633          8.6577
H          12.8773         4.47313         7.10856
H           11.551         5.02387         9.00791
H          14.0656         7.23948         7.70228
H          14.7405         5.87156         6.87232
H          13.3032          6.7332         6.32224
He         13.1473          4.1633         9.48964
He          12.894         3.65759         10.3115
He         13.2715          4.8835         8.48799
He          13.925         4.87036         9.46099
He         13.9961         4.13662         8.86868
He         12.2367         5.45454          8.0894
He         13.3512          5.7725         7.53484
He          12.895         4.86161         7.50244
He         11.5559         5.34143          8.6452
He         13.9277          6.7672         7.43782
He         14.2652         6.08324         7.02285
He         13.5465         6.51406          6.7478
O           12.999          12.728         3.53376
C          13.2581         14.0958         3.78811
C          12.8197         14.5102         5.22901
O          13.7072         13.9025         6.16863
C          12.7274         16.0558         5.40411
H          12.0522         12.6043         3.31537
H          14.3658         14.3083          3.7671
H          12.8607           14.71          3.0402
H          11.7954         14.1754         5.40303
H           13.496         12.9623         6.18045
H          11.9381         16.3183         4.70642
H          12.3185         16.2956         6.37893
H           13.661         16.6245         5.19574
He         13.1286         13.4119         3.66094
He         12.5256         12.6662         3.42456
He         13.0389          14.303         4.50856
He          13.812         14.2021         3.77761
He         13.0594         14.4029         3.41416
He         13.2634         14.2063         5.69882
He         12.7736          15.283         5.31656
He         12.3075         14.3428         5.31602
He         13.6016         13.4324         6.17454
He         12.3328          16.187         5.05527
He          12.523         16.1757         5.89152
He         13.1942         16.3401         5.29993
O         -1.15545         7.45744         15.2751
C        -0.471748         7.47584         14.1083
C         0.988129         7.63175         14.3819
O          1.48924         6.47144         14.9581
C          1.76585         7.98008         13.0801
H        -0.550092         7.39745         16.0089
H        -0.534248         6.64174         13.3898
H        -0.655264         8.39606         13.4988
H          1.15558         8.53758         14.9755
H         0.769894         6.12758         15.5148
H          2.87919         8.18122         13.2554
H          1.70119         7.22728         12.3057
H          1.34925         8.92249         12.6957
He       -0.813598         7.46664         14.6917
He        -0.85277         7.42744          15.642
He        0.258191         7.55379         14.2451
He       -0.502998         7.05879         13.7491
He       -0.563506         7.93595         13.8036
He         1.23868         7.05159           14.67
He         1.37699         7.80591          13.731
He         1.07186         8.08466         14.6787
He         1.12957         6.29951         15.2364
He         2.32252         8.08065         13.1678
He         1.73352         7.60368         12.6929
He         1.55755         8.45129         12.8879
O          9.15136          1.1091         6.68405
C          9.62127         1.27663         7.98066
C          9.00406         2.57506         8.62615
O          7.60449         2.37479         8.58766
C          9.41099         2.85788         10.0422
H          8.18514        0.950015         6.80519
H          9.42514        0.368593         8.55325
H          10.6987           1.357         8.05635
H          9.25336         3.46487         8.01915
H          7.34817         2.26497         9.52552
H           9.1799         2.05746         10.7796
H          10.5218          3.0302          10.035
H          8.92026         3.81233         10.3369
He         9.38631         1.19287         7.33235
He         8.66825         1.02956         6.74462
He         9.31266         1.92584          8.3034
He         9.52321        0.822613         8.26695
He           10.16         1.31682          8.0185
He         8.30427         2.47492         8.60691
He         9.20752         2.71647         9.33419
He         9.12871         3.01996         8.32265
He         7.47633         2.31988         9.05659
He         9.29545         2.45767         10.4109
He         9.96642         2.94404         10.0386
He         9.16563         3.33511         10.1896
O          4.47477         10.9635         14.3844
C          5.26435         10.6901         13.1677
C           6.8085         10.7762         13.4706
O          6.99062         11.9751         14.1569
C          7.18189         9.63179         14.4473
H          3.51544         10.9211         14.1639
H          4.95932         9.75818         12.6556
H          5.13469         11.5478         12.5653
H          7.21071         10.7235         12.4815
H          6.06706         12.1842          14.402
H          7.04423         8.72511          13.871
H          8.22273         9.70428         14.7854
H          6.62145         9.49807         15.4117
He         4.86956         10.8268         13.7761
He          3.9951         10.9423         14.2742
He         6.03642         10.7332         13.3192
He         5.11184         10.2242         12.9117
He         5.19952          11.119         12.8665
He         6.89956         11.3756         13.8138
He         6.99519          10.204          13.959
He          7.0096         10.7499         12.9761
He         6.52884         12.0796         14.2795
He         7.11306         9.17845         14.1592
He         7.70231         9.66803         14.6163
He         6.90167         9.56493         14.9295
O          1.26026         12.6887         9.73562
C          2.01593         13.4601         10.7193
C          1.78033          12.972         12.2062
O           2.2052         11.6344         12.3546
C          2.64592           13.86         13.0865
H         0.386979         13.0416         9.69986
H          3.07138         13.3191         10.5559
H          1.63912         14.5022          10.548
H         0.749736         13.1551         12.4618
H          2.14558         11.4016         11.3946
H          2.58007          13.548         14.1145
H          3.63626          13.813         12.6665
H          2.29781         14.9113         13.0727
He          1.6381         13.0744         10.2274
He        0.823621         12.8651         9.71774
He         1.89813          13.216         11.4627
He         2.54365         13.3896         10.6376
He         1.82752         13.9811         10.6337
He         1.99277         12.3032         12.2804
He         2.21312          13.416         12.6464
He         1.26503         13.0636          12.334
He         2.17539          11.518         11.8746
He           2.613          13.704         13.6005
He         3.14109         13.8365         12.8765
He         2.47186         14.3856         13.0796
O          2.49817         8.83762         5.13693
C          3.78876         9.33295         4.78829
C          4.88774         8.26407         4.99288
O          4.55142         7.03774         4.39079
C          6.19564         8.70919         4.31448
H          2.70571         8.29075         5.92522
H          3.78694         9.56789         3.71992
H          4.07639         10.2744         5.32149
H          5.05279         7.97386         6.08369
H          3.89027         7.15832         3.73258
H          6.91531         7.88121         4.41251
H          6.13324         9.04414         3.26366
H          6.58199         9.62812         4.78035
He         3.14347         9.08529         4.96261
He         2.60194         8.56419         5.53107
He         4.33825         8.79851         4.89058
He         3.78785         9.45042          4.2541
He         3.93258         9.80368         5.05489
He         4.71958          7.6509         4.69183
He         5.54169         8.48663         4.65368
He         4.97026         8.11896         5.53828
He         4.22085         7.09803         4.06169
He         6.55547          8.2952          4.3635
He         6.16444         8.87667         3.78907
He         6.38881         9.16866         4.54741
O          14.4835         14.1687         8.86448
C          13.2657          14.556          9.4597
C          12.7295         13.4898         10.4985
O          13.6186         13.3034         11.5477
C          11.4026         13.8784         11.0838
H          14.2896         14.0108         7.92931
H          13.4125           15.48         10.0208
H          12.4483         14.7846         8.66997
H          12.5597         12.5335         9.95412
H          13.0767         12.6595         12.0798
H          10.7203         14.1677         10.2968
H          11.0486         13.0492         11.6948
H           11.453         14.8361         11.6876
He         13.8746         14.3623         9.16209
He         14.3866         14.0898         8.39689
He         12.9976         14.0229          9.9791
He         13.3391          15.018         9.74025
He          12.857         14.6703         9.06484
He          13.174         13.3966         11.0231
He          12.066         13.6841         10.7912
He         12.6446         13.0116         10.2263
He         13.3476         12.9814         11.8137
He         11.0615          14.023         10.6903
He         11.2256         13.4638         11.3893
He         11.4278         14.3572         11.3857
O          6.93974         8.15914         11.0614
C          6.59011         6.81118         11.2944
C          5.13242          6.8173         11.8636
O          4.31088         7.46461         10.8929
C          4.69992         5.39103         12.0667
H          7.50209         8.17658           10.25
H          6.56064         6.33723         10.3712
H          7.29178          6.3957         12.0811
H           5.0503         7.37871         12.7958
H          4.86468         8.13175         10.4796
H          3.61492         5.25326         12.2032
H          4.90863         4.83438         11.1491
H          5.21698         4.84751         12.8865
He         6.76492         7.48516         11.1779
He         7.22092         8.16786         10.6557
He         5.86126         6.81424          11.579
He         6.57537         6.57421         10.8328
He         6.94094         6.60344         11.6878
He         4.72165         7.14096         11.3783
He         4.91617         6.10416         11.9652
He         5.09136           7.098         12.3297
He         4.58778         7.79818         10.6862
He         4.15742         5.32214         12.1349
He         4.80427          5.1127         11.6079
He         4.95845         5.11927         12.4766
